topology_creation/OpenDSS_data/LINES_LV_4.dss
new line.LVN_4_1 bus1=LVN_4_b1 bus2=LVN_4_b2 phases=3 linecode=4c_06 length=15.319300 units=m
new line.LVN_4_2 bus1=LVN_4_b2 bus2=LVN_4_b16 phases=3 linecode=4c_06 length=25.528700 units=m
new line.LVN_4_3 bus1=LVN_4_b2 bus2=LVN_4_b177 phases=3 linecode=4c_06 length=6.418580 units=m
new line.LVN_4_4 bus1=LVN_4_b3 bus2=LVN_4_b5 phases=3 linecode=2c_022 length=4.708520 units=m
new line.LVN_4_5 bus1=LVN_4_b5 bus2=LVN_4_b7 phases=3 linecode=2c_022 length=4.019970 units=m
new line.LVN_4_6 bus1=LVN_4_b5 bus2=LVN_4_b16 phases=3 linecode=4c_06 length=8.820220 units=m
new line.LVN_4_7 bus1=LVN_4_b8 bus2=LVN_4_b11 phases=3 linecode=2c_16 length=7.173170 units=m
new line.LVN_4_8 bus1=LVN_4_b8 bus2=LVN_4_b17 phases=3 linecode=4c_06 length=6.054070 units=m
new line.LVN_4_9 bus1=LVN_4_b8 bus2=LVN_4_b19 phases=3 linecode=2c_022 length=4.512640 units=m
new line.LVN_4_10 bus1=LVN_4_b16 bus2=LVN_4_b54 phases=3 linecode=4c_06 length=6.753990 units=m
new line.LVN_4_11 bus1=LVN_4_b17 bus2=LVN_4_b54 phases=3 linecode=4c_06 length=7.751660 units=m
new line.LVN_4_12 bus1=LVN_4_b17 bus2=LVN_4_b67 phases=3 linecode=4c_06 length=8.632980 units=m
new line.LVN_4_13 bus1=LVN_4_b20 bus2=LVN_4_b21 phases=3 linecode=4c_06 length=7.697330 units=m
new line.LVN_4_14 bus1=LVN_4_b20 bus2=LVN_4_b29 phases=3 linecode=4c_06 length=6.944550 units=m
new line.LVN_4_15 bus1=LVN_4_b20 bus2=LVN_4_b39 phases=3 linecode=4c_06 length=8.221230 units=m
new line.LVN_4_16 bus1=LVN_4_b21 bus2=LVN_4_b22 phases=3 linecode=4c_06 length=7.165700 units=m
new line.LVN_4_17 bus1=LVN_4_b21 bus2=LVN_4_b73 phases=3 linecode=4c_06 length=8.858740 units=m
new line.LVN_4_18 bus1=LVN_4_b22 bus2=LVN_4_b23 phases=3 linecode=4c_06 length=7.986070 units=m
new line.LVN_4_19 bus1=LVN_4_b22 bus2=LVN_4_b67 phases=3 linecode=4c_06 length=7.822450 units=m
new line.LVN_4_20 bus1=LVN_4_b23 bus2=LVN_4_b26 phases=3 linecode=2c_022 length=5.882300 units=m
new line.LVN_4_21 bus1=LVN_4_b23 bus2=LVN_4_b28 phases=3 linecode=35_SA length=4.198160 units=m
new line.LVN_4_22 bus1=LVN_4_b29 bus2=LVN_4_b32 phases=3 linecode=2c_16 length=5.942420 units=m
new line.LVN_4_23 bus1=LVN_4_b29 bus2=LVN_4_b41 phases=3 linecode=35_SA length=3.735320 units=m
new line.LVN_4_24 bus1=LVN_4_b33 bus2=LVN_4_b37 phases=3 linecode=2c_16 length=8.646490 units=m
new line.LVN_4_25 bus1=LVN_4_b37 bus2=LVN_4_b38 phases=3 linecode=4c_06 length=5.090440 units=m
new line.LVN_4_26 bus1=LVN_4_b37 bus2=LVN_4_b49 phases=3 linecode=2c_022 length=6.830120 units=m
new line.LVN_4_27 bus1=LVN_4_b38 bus2=LVN_4_b39 phases=3 linecode=4c_06 length=7.556290 units=m
new line.LVN_4_28 bus1=LVN_4_b38 bus2=LVN_4_b106 phases=3 linecode=4c_06 length=8.374420 units=m
new line.LVN_4_29 bus1=LVN_4_b39 bus2=LVN_4_b96 phases=3 linecode=4c_06 length=5.292140 units=m
new line.LVN_4_30 bus1=LVN_4_b42 bus2=LVN_4_b46 phases=3 linecode=2c_022 length=9.540850 units=m
new line.LVN_4_31 bus1=LVN_4_b42 bus2=LVN_4_b50 phases=3 linecode=2c_16 length=8.536170 units=m
new line.LVN_4_32 bus1=LVN_4_b42 bus2=LVN_4_b83 phases=3 linecode=4c_06 length=3.661720 units=m
new line.LVN_4_33 bus1=LVN_4_b54 bus2=LVN_4_b55 phases=3 linecode=4c_06 length=5.376500 units=m
new line.LVN_4_34 bus1=LVN_4_b55 bus2=LVN_4_b56 phases=3 linecode=4c_06 length=5.423910 units=m
new line.LVN_4_35 bus1=LVN_4_b55 bus2=LVN_4_b86 phases=3 linecode=2c_16 length=7.090600 units=m
new line.LVN_4_36 bus1=LVN_4_b56 bus2=LVN_4_b149 phases=3 linecode=35_SA length=6.756780 units=m
new line.LVN_4_37 bus1=LVN_4_b56 bus2=LVN_4_b156 phases=3 linecode=35_SA length=9.041530 units=m
new line.LVN_4_38 bus1=LVN_4_b57 bus2=LVN_4_b60 phases=3 linecode=2c_16 length=8.645830 units=m
new line.LVN_4_39 bus1=LVN_4_b57 bus2=LVN_4_b61 phases=3 linecode=2c_16 length=4.079830 units=m
new line.LVN_4_40 bus1=LVN_4_b57 bus2=LVN_4_b82 phases=3 linecode=4c_06 length=6.172240 units=m
new line.LVN_4_41 bus1=LVN_4_b62 bus2=LVN_4_b66 phases=3 linecode=2c_022 length=6.924800 units=m
new line.LVN_4_42 bus1=LVN_4_b62 bus2=LVN_4_b74 phases=3 linecode=35_SA length=6.097930 units=m
new line.LVN_4_43 bus1=LVN_4_b62 bus2=LVN_4_b115 phases=3 linecode=4c_06 length=6.778310 units=m
new line.LVN_4_44 bus1=LVN_4_b67 bus2=LVN_4_b68 phases=3 linecode=4c_06 length=4.947620 units=m
new line.LVN_4_45 bus1=LVN_4_b68 bus2=LVN_4_b71 phases=3 linecode=2c_16 length=5.725650 units=m
new line.LVN_4_46 bus1=LVN_4_b68 bus2=LVN_4_b109 phases=3 linecode=4c_06 length=3.799100 units=m
new line.LVN_4_47 bus1=LVN_4_b73 bus2=LVN_4_b172 phases=3 linecode=2c_022 length=6.855140 units=m
new line.LVN_4_48 bus1=LVN_4_b73 bus2=LVN_4_b176 phases=3 linecode=2c_022 length=3.867650 units=m
new line.LVN_4_49 bus1=LVN_4_b77 bus2=LVN_4_b78 phases=3 linecode=4c_06 length=4.742320 units=m
new line.LVN_4_50 bus1=LVN_4_b77 bus2=LVN_4_b102 phases=3 linecode=35_SA length=6.319190 units=m
new line.LVN_4_51 bus1=LVN_4_b77 bus2=LVN_4_b103 phases=3 linecode=4c_06 length=5.206690 units=m
new line.LVN_4_52 bus1=LVN_4_b78 bus2=LVN_4_b81 phases=3 linecode=35_SA length=12.327800 units=m
new line.LVN_4_53 bus1=LVN_4_b78 bus2=LVN_4_b99 phases=3 linecode=4c_06 length=6.052500 units=m
new line.LVN_4_54 bus1=LVN_4_b82 bus2=LVN_4_b107 phases=3 linecode=4c_06 length=6.849220 units=m
new line.LVN_4_55 bus1=LVN_4_b82 bus2=LVN_4_b118 phases=3 linecode=4c_06 length=7.382530 units=m
new line.LVN_4_56 bus1=LVN_4_b83 bus2=LVN_4_b106 phases=3 linecode=4c_06 length=7.413540 units=m
new line.LVN_4_57 bus1=LVN_4_b83 bus2=LVN_4_b107 phases=3 linecode=4c_06 length=9.376940 units=m
new line.LVN_4_58 bus1=LVN_4_b87 bus2=LVN_4_b90 phases=3 linecode=4c_06 length=3.861760 units=m
new line.LVN_4_59 bus1=LVN_4_b87 bus2=LVN_4_b178 phases=3 linecode=4c_06 length=16.754900 units=m
new line.LVN_4_60 bus1=LVN_4_b87 bus2=LVN_4_b203 phases=3 linecode=35_SA length=3.921950 units=m
new line.LVN_4_61 bus1=LVN_4_b90 bus2=LVN_4_b92 phases=3 linecode=2c_16 length=12.212900 units=m
new line.LVN_4_62 bus1=LVN_4_b90 bus2=LVN_4_b93 phases=3 linecode=35_SA length=12.728400 units=m
new line.LVN_4_63 bus1=LVN_4_b96 bus2=LVN_4_b148 phases=3 linecode=4c_06 length=4.365960 units=m
new line.LVN_4_64 bus1=LVN_4_b96 bus2=LVN_4_b164 phases=3 linecode=2c_16 length=5.657280 units=m
new line.LVN_4_65 bus1=LVN_4_b97 bus2=LVN_4_b99 phases=3 linecode=2c_16 length=10.732500 units=m
new line.LVN_4_66 bus1=LVN_4_b99 bus2=LVN_4_b101 phases=3 linecode=4c_06 length=3.456350 units=m
new line.LVN_4_67 bus1=LVN_4_b101 bus2=LVN_4_b112 phases=3 linecode=35_SA length=10.725400 units=m
new line.LVN_4_68 bus1=LVN_4_b101 bus2=LVN_4_b123 phases=3 linecode=4c_06 length=10.157900 units=m
new line.LVN_4_69 bus1=LVN_4_b103 bus2=LVN_4_b105 phases=3 linecode=2c_16 length=8.117830 units=m
new line.LVN_4_70 bus1=LVN_4_b103 bus2=LVN_4_b115 phases=3 linecode=4c_06 length=10.884100 units=m
new line.LVN_4_71 bus1=LVN_4_b106 bus2=LVN_4_b119 phases=3 linecode=4c_06 length=3.274250 units=m
new line.LVN_4_72 bus1=LVN_4_b107 bus2=LVN_4_b108 phases=3 linecode=4c_06 length=4.178830 units=m
new line.LVN_4_73 bus1=LVN_4_b108 bus2=LVN_4_b186 phases=3 linecode=2c_022 length=5.149550 units=m
new line.LVN_4_74 bus1=LVN_4_b108 bus2=LVN_4_b188 phases=3 linecode=2c_022 length=6.555980 units=m
new line.LVN_4_75 bus1=LVN_4_b108 bus2=LVN_4_b191 phases=3 linecode=35_SA length=7.031030 units=m
new line.LVN_4_76 bus1=LVN_4_b109 bus2=LVN_4_b139 phases=3 linecode=35_SA length=7.155380 units=m
new line.LVN_4_77 bus1=LVN_4_b109 bus2=LVN_4_b140 phases=3 linecode=35_SA length=5.524630 units=m
new line.LVN_4_78 bus1=LVN_4_b115 bus2=LVN_4_b118 phases=3 linecode=4c_06 length=8.510360 units=m
new line.LVN_4_79 bus1=LVN_4_b118 bus2=LVN_4_b167 phases=3 linecode=4c_06 length=5.660530 units=m
new line.LVN_4_80 bus1=LVN_4_b119 bus2=LVN_4_b157 phases=3 linecode=4c_06 length=5.589570 units=m
new line.LVN_4_81 bus1=LVN_4_b119 bus2=LVN_4_b160 phases=3 linecode=2c_16 length=6.498980 units=m
new line.LVN_4_82 bus1=LVN_4_b123 bus2=LVN_4_b126 phases=3 linecode=2c_16 length=11.667200 units=m
new line.LVN_4_83 bus1=LVN_4_b123 bus2=LVN_4_b197 phases=3 linecode=4c_06 length=4.013770 units=m
new line.LVN_4_84 bus1=LVN_4_b127 bus2=LVN_4_b130 phases=3 linecode=2c_022 length=12.261400 units=m
new line.LVN_4_85 bus1=LVN_4_b127 bus2=LVN_4_b131 phases=3 linecode=4c_06 length=6.051380 units=m
new line.LVN_4_86 bus1=LVN_4_b127 bus2=LVN_4_b197 phases=3 linecode=4c_06 length=5.278790 units=m
new line.LVN_4_87 bus1=LVN_4_b131 bus2=LVN_4_b134 phases=3 linecode=35_SA length=12.008200 units=m
new line.LVN_4_88 bus1=LVN_4_b131 bus2=LVN_4_b141 phases=3 linecode=4c_06 length=5.231940 units=m
new line.LVN_4_89 bus1=LVN_4_b141 bus2=LVN_4_b144 phases=3 linecode=2c_16 length=11.698200 units=m
new line.LVN_4_90 bus1=LVN_4_b141 bus2=LVN_4_b171 phases=3 linecode=4c_06 length=4.077720 units=m
new line.LVN_4_91 bus1=LVN_4_b145 bus2=LVN_4_b148 phases=3 linecode=2c_16 length=5.417990 units=m
new line.LVN_4_92 bus1=LVN_4_b148 bus2=LVN_4_b193 phases=3 linecode=35_SA length=3.470800 units=m
new line.LVN_4_93 bus1=LVN_4_b157 bus2=LVN_4_b159 phases=3 linecode=2c_16 length=5.476630 units=m
new line.LVN_4_94 bus1=LVN_4_b157 bus2=LVN_4_b196 phases=3 linecode=2c_16 length=4.247690 units=m
new line.LVN_4_95 bus1=LVN_4_b167 bus2=LVN_4_b215 phases=3 linecode=2c_022 length=6.461280 units=m
new line.LVN_4_96 bus1=LVN_4_b167 bus2=LVN_4_b222 phases=3 linecode=2c_022 length=7.939710 units=m
new line.LVN_4_97 bus1=LVN_4_b168 bus2=LVN_4_b171 phases=3 linecode=2c_16 length=11.516300 units=m
new line.LVN_4_98 bus1=LVN_4_b171 bus2=LVN_4_b178 phases=3 linecode=4c_06 length=5.169500 units=m
new line.LVN_4_99 bus1=LVN_4_b177 bus2=LVN_4_b198 phases=3 linecode=4c_06 length=3.588800 units=m
new line.LVN_4_100 bus1=LVN_4_b177 bus2=LVN_4_b202 phases=3 linecode=2c_16 length=8.060150 units=m
new line.LVN_4_101 bus1=LVN_4_b178 bus2=LVN_4_b181 phases=3 linecode=2c_022 length=11.672300 units=m
new line.LVN_4_102 bus1=LVN_4_b197 bus2=LVN_4_b208 phases=3 linecode=4c_06 length=29.861700 units=m
new line.LVN_4_103 bus1=LVN_4_b198 bus2=LVN_4_b201 phases=3 linecode=2c_022 length=9.301530 units=m
new line.LVN_4_104 bus1=LVN_4_b198 bus2=LVN_4_b223 phases=3 linecode=4c_06 length=5.576320 units=m
new line.LVN_4_105 bus1=LVN_4_b207 bus2=LVN_4_b208 phases=3 linecode=4c_06 length=19.158500 units=m
new line.LVN_4_106 bus1=LVN_4_b207 bus2=LVN_4_b235 phases=3 linecode=35_SA length=13.818900 units=m
new line.LVN_4_107 bus1=LVN_4_b207 bus2=LVN_4_b260 phases=3 linecode=35_SA length=8.905280 units=m
new line.LVN_4_108 bus1=LVN_4_b207 bus2=LVN_4_b264 phases=3 linecode=2c_16 length=15.630200 units=m
new line.LVN_4_109 bus1=LVN_4_b208 bus2=LVN_4_b257 phases=3 linecode=4c_06 length=20.155200 units=m
new line.LVN_4_110 bus1=LVN_4_b223 bus2=LVN_4_b226 phases=3 linecode=2c_022 length=10.201300 units=m
new line.LVN_4_111 bus1=LVN_4_b223 bus2=LVN_4_b227 phases=3 linecode=4c_06 length=4.768560 units=m
new line.LVN_4_112 bus1=LVN_4_b227 bus2=LVN_4_b228 phases=3 linecode=4c_06 length=7.951650 units=m
new line.LVN_4_113 bus1=LVN_4_b227 bus2=LVN_4_b229 phases=3 linecode=2c_022 length=7.863440 units=m
new line.LVN_4_114 bus1=LVN_4_b228 bus2=LVN_4_b233 phases=3 linecode=4c_06 length=6.041190 units=m
new line.LVN_4_115 bus1=LVN_4_b228 bus2=LVN_4_b234 phases=3 linecode=2c_16 length=8.170260 units=m
new line.LVN_4_116 bus1=LVN_4_b230 bus2=LVN_4_b232 phases=3 linecode=2c_022 length=10.414600 units=m
new line.LVN_4_117 bus1=LVN_4_b232 bus2=LVN_4_b241 phases=3 linecode=2c_022 length=11.579700 units=m
new line.LVN_4_118 bus1=LVN_4_b232 bus2=LVN_4_b243 phases=3 linecode=4c_06 length=8.926990 units=m
new line.LVN_4_119 bus1=LVN_4_b233 bus2=LVN_4_b244 phases=3 linecode=4c_06 length=6.541020 units=m
new line.LVN_4_120 bus1=LVN_4_b233 bus2=LVN_4_b245 phases=3 linecode=2c_022 length=8.306210 units=m
new line.LVN_4_121 bus1=LVN_4_b243 bus2=LVN_4_b248 phases=3 linecode=2c_16 length=10.921100 units=m
new line.LVN_4_122 bus1=LVN_4_b243 bus2=LVN_4_b254 phases=3 linecode=4c_06 length=30.114900 units=m
new line.LVN_4_123 bus1=LVN_4_b244 bus2=LVN_4_b266 phases=3 linecode=35_SA length=8.789840 units=m
new line.LVN_4_124 bus1=LVN_4_b244 bus2=LVN_4_b271 phases=3 linecode=4c_06 length=63.483900 units=m
new line.LVN_4_125 bus1=LVN_4_b254 bus2=LVN_4_b269 phases=3 linecode=4c_06 length=11.772100 units=m
new line.LVN_4_126 bus1=LVN_4_b254 bus2=LVN_4_b285 phases=3 linecode=4c_06 length=19.658400 units=m
new line.LVN_4_127 bus1=LVN_4_b255 bus2=LVN_4_b256 phases=3 linecode=4c_06 length=14.136000 units=m
new line.LVN_4_128 bus1=LVN_4_b255 bus2=LVN_4_b274 phases=3 linecode=2c_16 length=7.590480 units=m
new line.LVN_4_129 bus1=LVN_4_b255 bus2=LVN_4_b286 phases=3 linecode=2c_022 length=9.341390 units=m
new line.LVN_4_130 bus1=LVN_4_b256 bus2=LVN_4_b257 phases=3 linecode=4c_06 length=12.728700 units=m
new line.LVN_4_131 bus1=LVN_4_b256 bus2=LVN_4_b270 phases=3 linecode=2c_022 length=6.841100 units=m
new line.LVN_4_132 bus1=LVN_4_b257 bus2=LVN_4_b281 phases=3 linecode=4c_06 length=20.155200 units=m
new line.LVN_4_133 bus1=LVN_4_b267 bus2=LVN_4_b269 phases=3 linecode=2c_022 length=8.710320 units=m
new line.LVN_4_134 bus1=LVN_4_b269 bus2=LVN_4_b278 phases=3 linecode=4c_06 length=9.407600 units=m
new line.LVN_4_135 bus1=LVN_4_b271 bus2=LVN_4_b303 phases=3 linecode=4c_06 length=17.920600 units=m
new line.LVN_4_136 bus1=LVN_4_b271 bus2=LVN_4_b382 phases=3 linecode=4c_06 length=36.854700 units=m
new line.LVN_4_137 bus1=LVN_4_b275 bus2=LVN_4_b278 phases=3 linecode=2c_022 length=9.640960 units=m
new line.LVN_4_138 bus1=LVN_4_b278 bus2=LVN_4_b291 phases=3 linecode=35_SA length=8.539520 units=m
new line.LVN_4_139 bus1=LVN_4_b281 bus2=LVN_4_b322 phases=3 linecode=4c_06 length=9.930260 units=m
new line.LVN_4_140 bus1=LVN_4_b281 bus2=LVN_4_b349 phases=3 linecode=4c_06 length=23.800200 units=m
new line.LVN_4_141 bus1=LVN_4_b285 bus2=LVN_4_b335 phases=3 linecode=4c_06 length=13.926000 units=m
new line.LVN_4_142 bus1=LVN_4_b285 bus2=LVN_4_b344 phases=3 linecode=4c_06 length=21.202300 units=m
new line.LVN_4_143 bus1=LVN_4_b292 bus2=LVN_4_b294 phases=3 linecode=2c_022 length=10.414600 units=m
new line.LVN_4_144 bus1=LVN_4_b294 bus2=LVN_4_b297 phases=3 linecode=35_SA length=11.579700 units=m
new line.LVN_4_145 bus1=LVN_4_b294 bus2=LVN_4_b299 phases=3 linecode=4c_06 length=8.926990 units=m
new line.LVN_4_146 bus1=LVN_4_b299 bus2=LVN_4_b302 phases=3 linecode=2c_16 length=10.921100 units=m
new line.LVN_4_147 bus1=LVN_4_b299 bus2=LVN_4_b308 phases=3 linecode=4c_06 length=28.232900 units=m
new line.LVN_4_148 bus1=LVN_4_b303 bus2=LVN_4_b306 phases=3 linecode=4c_06 length=9.557600 units=m
new line.LVN_4_149 bus1=LVN_4_b303 bus2=LVN_4_b428 phases=3 linecode=4c_06 length=9.368040 units=m
new line.LVN_4_150 bus1=LVN_4_b306 bus2=LVN_4_b308 phases=3 linecode=4c_06 length=13.697000 units=m
new line.LVN_4_151 bus1=LVN_4_b306 bus2=LVN_4_b411 phases=3 linecode=4c_06 length=5.054740 units=m
new line.LVN_4_152 bus1=LVN_4_b308 bus2=LVN_4_b370 phases=3 linecode=4c_06 length=9.018310 units=m
new line.LVN_4_153 bus1=LVN_4_b314 bus2=LVN_4_b318 phases=3 linecode=4c_06 length=31.093400 units=m
new line.LVN_4_154 bus1=LVN_4_b314 bus2=LVN_4_b398 phases=3 linecode=4c_06 length=26.985700 units=m
new line.LVN_4_155 bus1=LVN_4_b314 bus2=LVN_4_b435 phases=3 linecode=4c_06 length=5.991790 units=m
new line.LVN_4_156 bus1=LVN_4_b318 bus2=LVN_4_b321 phases=3 linecode=2c_022 length=12.641100 units=m
new line.LVN_4_157 bus1=LVN_4_b318 bus2=LVN_4_b331 phases=3 linecode=2c_16 length=14.794700 units=m
new line.LVN_4_158 bus1=LVN_4_b322 bus2=LVN_4_b325 phases=3 linecode=35_SA length=11.974500 units=m
new line.LVN_4_159 bus1=LVN_4_b322 bus2=LVN_4_b354 phases=3 linecode=4c_06 length=8.963540 units=m
new line.LVN_4_160 bus1=LVN_4_b326 bus2=LVN_4_b328 phases=3 linecode=2c_16 length=7.011800 units=m
new line.LVN_4_161 bus1=LVN_4_b326 bus2=LVN_4_b354 phases=3 linecode=4c_06 length=5.806630 units=m
new line.LVN_4_162 bus1=LVN_4_b326 bus2=LVN_4_b356 phases=3 linecode=35_SA length=9.067700 units=m
new line.LVN_4_163 bus1=LVN_4_b332 bus2=LVN_4_b334 phases=3 linecode=35_SA length=8.975190 units=m
new line.LVN_4_164 bus1=LVN_4_b332 bus2=LVN_4_b335 phases=3 linecode=4c_06 length=5.688560 units=m
new line.LVN_4_165 bus1=LVN_4_b332 bus2=LVN_4_b338 phases=3 linecode=2c_16 length=9.598120 units=m
new line.LVN_4_166 bus1=LVN_4_b335 bus2=LVN_4_b337 phases=3 linecode=2c_16 length=11.419700 units=m
new line.LVN_4_167 bus1=LVN_4_b344 bus2=LVN_4_b346 phases=3 linecode=4c_06 length=11.561000 units=m
new line.LVN_4_168 bus1=LVN_4_b344 bus2=LVN_4_b349 phases=3 linecode=4c_06 length=9.156470 units=m
new line.LVN_4_169 bus1=LVN_4_b346 bus2=LVN_4_b348 phases=3 linecode=2c_16 length=11.482200 units=m
new line.LVN_4_170 bus1=LVN_4_b346 bus2=LVN_4_b391 phases=3 linecode=4c_06 length=6.980100 units=m
new line.LVN_4_171 bus1=LVN_4_b349 bus2=LVN_4_b402 phases=3 linecode=4c_06 length=1.132050 units=m
new line.LVN_4_172 bus1=LVN_4_b354 bus2=LVN_4_b357 phases=3 linecode=2c_16 length=8.903830 units=m
new line.LVN_4_173 bus1=LVN_4_b360 bus2=LVN_4_b362 phases=3 linecode=2c_16 length=8.826860 units=m
new line.LVN_4_174 bus1=LVN_4_b360 bus2=LVN_4_b363 phases=3 linecode=4c_06 length=6.980100 units=m
new line.LVN_4_175 bus1=LVN_4_b360 bus2=LVN_4_b367 phases=3 linecode=2c_022 length=13.032400 units=m
new line.LVN_4_176 bus1=LVN_4_b363 bus2=LVN_4_b382 phases=3 linecode=4c_06 length=10.460600 units=m
new line.LVN_4_177 bus1=LVN_4_b363 bus2=LVN_4_b384 phases=3 linecode=2c_16 length=11.482200 units=m
new line.LVN_4_178 bus1=LVN_4_b368 bus2=LVN_4_b370 phases=3 linecode=2c_022 length=8.710320 units=m
new line.LVN_4_179 bus1=LVN_4_b370 bus2=LVN_4_b377 phases=3 linecode=4c_06 length=9.407600 units=m
new line.LVN_4_180 bus1=LVN_4_b371 bus2=LVN_4_b373 phases=3 linecode=2c_16 length=8.975190 units=m
new line.LVN_4_181 bus1=LVN_4_b371 bus2=LVN_4_b378 phases=3 linecode=4c_06 length=5.688560 units=m
new line.LVN_4_182 bus1=LVN_4_b371 bus2=LVN_4_b381 phases=3 linecode=2c_022 length=9.598120 units=m
new line.LVN_4_183 bus1=LVN_4_b374 bus2=LVN_4_b377 phases=3 linecode=35_SA length=9.640960 units=m
new line.LVN_4_184 bus1=LVN_4_b377 bus2=LVN_4_b387 phases=3 linecode=35_SA length=8.539520 units=m
new line.LVN_4_185 bus1=LVN_4_b378 bus2=LVN_4_b388 phases=3 linecode=2c_16 length=11.419700 units=m
new line.LVN_4_186 bus1=LVN_4_b378 bus2=LVN_4_b398 phases=3 linecode=4c_06 length=10.367000 units=m
new line.LVN_4_187 bus1=LVN_4_b382 bus2=LVN_4_b398 phases=3 linecode=4c_06 length=20.179300 units=m
new line.LVN_4_188 bus1=LVN_4_b391 bus2=LVN_4_b393 phases=3 linecode=35_SA length=8.826860 units=m
new line.LVN_4_189 bus1=LVN_4_b391 bus2=LVN_4_b397 phases=3 linecode=35_SA length=13.032400 units=m
new line.LVN_4_190 bus1=LVN_4_b399 bus2=LVN_4_b401 phases=3 linecode=35_SA length=7.896470 units=m
new line.LVN_4_191 bus1=LVN_4_b399 bus2=LVN_4_b402 phases=3 linecode=4c_06 length=12.509300 units=m
new line.LVN_4_192 bus1=LVN_4_b399 bus2=LVN_4_b407 phases=3 linecode=4c_06 length=6.095810 units=m
new line.LVN_4_193 bus1=LVN_4_b402 bus2=LVN_4_b404 phases=3 linecode=4c_06 length=11.776100 units=m
new line.LVN_4_194 bus1=LVN_4_b404 bus2=LVN_4_b406 phases=3 linecode=2c_022 length=8.846340 units=m
new line.LVN_4_195 bus1=LVN_4_b404 bus2=LVN_4_b451 phases=3 linecode=4c_06 length=4.191830 units=m
new line.LVN_4_196 bus1=LVN_4_b407 bus2=LVN_4_b409 phases=3 linecode=2c_022 length=6.603080 units=m
new line.LVN_4_197 bus1=LVN_4_b407 bus2=LVN_4_b424 phases=3 linecode=2c_022 length=6.026880 units=m
new line.LVN_4_198 bus1=LVN_4_b407 bus2=LVN_4_b425 phases=3 linecode=2c_16 length=8.444910 units=m
new line.LVN_4_199 bus1=LVN_4_b410 bus2=LVN_4_b411 phases=3 linecode=4c_06 length=5.169500 units=m
new line.LVN_4_200 bus1=LVN_4_b410 bus2=LVN_4_b432 phases=3 linecode=2c_022 length=11.516300 units=m
new line.LVN_4_201 bus1=LVN_4_b410 bus2=LVN_4_b436 phases=3 linecode=4c_06 length=4.077720 units=m
new line.LVN_4_202 bus1=LVN_4_b411 bus2=LVN_4_b415 phases=3 linecode=35_SA length=11.672300 units=m
new line.LVN_4_203 bus1=LVN_4_b428 bus2=LVN_4_b430 phases=3 linecode=4c_06 length=15.173900 units=m
new line.LVN_4_204 bus1=LVN_4_b428 bus2=LVN_4_b437 phases=3 linecode=4c_06 length=27.181200 units=m
new line.LVN_4_205 bus1=LVN_4_b430 bus2=LVN_4_b431 phases=3 linecode=4c_06 length=6.637250 units=m
new line.LVN_4_206 bus1=LVN_4_b430 bus2=LVN_4_b503 phases=3 linecode=4c_06 length=10.680500 units=m
new line.LVN_4_207 bus1=LVN_4_b431 bus2=LVN_4_b497 phases=3 linecode=2c_022 length=8.951940 units=m
new line.LVN_4_208 bus1=LVN_4_b431 bus2=LVN_4_b511 phases=3 linecode=2c_16 length=4.434050 units=m
new line.LVN_4_209 bus1=LVN_4_b435 bus2=LVN_4_b440 phases=3 linecode=4c_06 length=19.526400 units=m
new line.LVN_4_210 bus1=LVN_4_b435 bus2=LVN_4_b469 phases=3 linecode=4c_06 length=21.496700 units=m
new line.LVN_4_211 bus1=LVN_4_b436 bus2=LVN_4_b455 phases=3 linecode=2c_022 length=11.698200 units=m
new line.LVN_4_212 bus1=LVN_4_b436 bus2=LVN_4_b466 phases=3 linecode=4c_06 length=5.231940 units=m
new line.LVN_4_213 bus1=LVN_4_b437 bus2=LVN_4_b444 phases=3 linecode=4c_06 length=13.842800 units=m
new line.LVN_4_214 bus1=LVN_4_b437 bus2=LVN_4_b447 phases=3 linecode=4c_06 length=19.977000 units=m
new line.LVN_4_215 bus1=LVN_4_b440 bus2=LVN_4_b443 phases=3 linecode=2c_16 length=12.532100 units=m
new line.LVN_4_216 bus1=LVN_4_b440 bus2=LVN_4_b468 phases=3 linecode=35_SA length=10.729600 units=m
new line.LVN_4_217 bus1=LVN_4_b444 bus2=LVN_4_b501 phases=3 linecode=4c_06 length=8.673790 units=m
new line.LVN_4_218 bus1=LVN_4_b444 bus2=LVN_4_b502 phases=3 linecode=2c_022 length=6.166010 units=m
new line.LVN_4_219 bus1=LVN_4_b447 bus2=LVN_4_b450 phases=3 linecode=4c_06 length=20.125500 units=m
new line.LVN_4_220 bus1=LVN_4_b447 bus2=LVN_4_b452 phases=3 linecode=4c_06 length=14.456000 units=m
new line.LVN_4_221 bus1=LVN_4_b450 bus2=LVN_4_b461 phases=3 linecode=4c_06 length=33.506600 units=m
new line.LVN_4_222 bus1=LVN_4_b450 bus2=LVN_4_b465 phases=3 linecode=4c_06 length=12.751300 units=m
new line.LVN_4_223 bus1=LVN_4_b451 bus2=LVN_4_b477 phases=3 linecode=4c_06 length=4.709520 units=m
new line.LVN_4_224 bus1=LVN_4_b451 bus2=LVN_4_b479 phases=3 linecode=2c_022 length=8.965260 units=m
new line.LVN_4_225 bus1=LVN_4_b452 bus2=LVN_4_b509 phases=3 linecode=4c_06 length=6.272990 units=m
new line.LVN_4_226 bus1=LVN_4_b452 bus2=LVN_4_b510 phases=3 linecode=2c_16 length=5.359380 units=m
new line.LVN_4_227 bus1=LVN_4_b461 bus2=LVN_4_b464 phases=3 linecode=35_SA length=7.596460 units=m
new line.LVN_4_228 bus1=LVN_4_b461 bus2=LVN_4_b512 phases=3 linecode=4c_06 length=6.980100 units=m
new line.LVN_4_229 bus1=LVN_4_b465 bus2=LVN_4_b507 phases=3 linecode=4c_06 length=8.433870 units=m
new line.LVN_4_230 bus1=LVN_4_b465 bus2=LVN_4_b508 phases=3 linecode=2c_022 length=5.224730 units=m
new line.LVN_4_231 bus1=LVN_4_b466 bus2=LVN_4_b482 phases=3 linecode=35_SA length=12.008200 units=m
new line.LVN_4_232 bus1=LVN_4_b466 bus2=LVN_4_b490 phases=3 linecode=4c_06 length=6.051380 units=m
new line.LVN_4_233 bus1=LVN_4_b469 bus2=LVN_4_b528 phases=3 linecode=4c_06 length=21.930800 units=m
new line.LVN_4_234 bus1=LVN_4_b469 bus2=LVN_4_b566 phases=3 linecode=4c_06 length=22.602200 units=m
new line.LVN_4_235 bus1=LVN_4_b473 bus2=LVN_4_b476 phases=3 linecode=35_SA length=6.097140 units=m
new line.LVN_4_236 bus1=LVN_4_b476 bus2=LVN_4_b477 phases=3 linecode=4c_06 length=2.779740 units=m
new line.LVN_4_237 bus1=LVN_4_b476 bus2=LVN_4_b493 phases=3 linecode=2c_16 length=6.423840 units=m
new line.LVN_4_238 bus1=LVN_4_b477 bus2=LVN_4_b483 phases=3 linecode=35_SA length=9.553620 units=m
new line.LVN_4_239 bus1=LVN_4_b490 bus2=LVN_4_b500 phases=3 linecode=2c_022 length=12.261400 units=m
new line.LVN_4_240 bus1=LVN_4_b490 bus2=LVN_4_b516 phases=3 linecode=4c_06 length=9.292570 units=m
new line.LVN_4_241 bus1=LVN_4_b501 bus2=LVN_4_b544 phases=3 linecode=35_SA length=7.731700 units=m
new line.LVN_4_242 bus1=LVN_4_b501 bus2=LVN_4_b548 phases=3 linecode=2c_16 length=11.837900 units=m
new line.LVN_4_243 bus1=LVN_4_b503 bus2=LVN_4_b539 phases=3 linecode=2c_16 length=10.501100 units=m
new line.LVN_4_244 bus1=LVN_4_b503 bus2=LVN_4_b542 phases=3 linecode=4c_06 length=8.836100 units=m
new line.LVN_4_245 bus1=LVN_4_b504 bus2=LVN_4_b507 phases=3 linecode=2c_16 length=9.418820 units=m
new line.LVN_4_246 bus1=LVN_4_b507 bus2=LVN_4_b524 phases=3 linecode=2c_022 length=8.864710 units=m
new line.LVN_4_247 bus1=LVN_4_b509 bus2=LVN_4_b517 phases=3 linecode=2c_022 length=8.152050 units=m
new line.LVN_4_248 bus1=LVN_4_b509 bus2=LVN_4_b521 phases=3 linecode=2c_16 length=12.504000 units=m
new line.LVN_4_249 bus1=LVN_4_b512 bus2=LVN_4_b515 phases=3 linecode=35_SA length=8.400140 units=m
new line.LVN_4_250 bus1=LVN_4_b512 bus2=LVN_4_b527 phases=3 linecode=35_SA length=7.611120 units=m
new line.LVN_4_251 bus1=LVN_4_b516 bus2=LVN_4_b538 phases=3 linecode=2c_16 length=11.667200 units=m
new line.LVN_4_252 bus1=LVN_4_b516 bus2=LVN_4_b543 phases=3 linecode=4c_06 length=10.157900 units=m
new line.LVN_4_253 bus1=LVN_4_b528 bus2=LVN_4_b532 phases=3 linecode=35_SA length=8.276320 units=m
new line.LVN_4_254 bus1=LVN_4_b528 bus2=LVN_4_b564 phases=3 linecode=2c_16 length=14.557900 units=m
new line.LVN_4_255 bus1=LVN_4_b542 bus2=LVN_4_b556 phases=3 linecode=2c_022 length=9.954080 units=m
new line.LVN_4_256 bus1=LVN_4_b542 bus2=LVN_4_b557 phases=3 linecode=4c_06 length=5.955410 units=m
new line.LVN_4_257 bus1=LVN_4_b543 bus2=LVN_4_b551 phases=3 linecode=35_SA length=10.725400 units=m
new line.LVN_4_258 bus1=LVN_4_b543 bus2=LVN_4_b554 phases=3 linecode=4c_06 length=3.456350 units=m
new line.LVN_4_259 bus1=LVN_4_b552 bus2=LVN_4_b554 phases=3 linecode=2c_022 length=10.732500 units=m
new line.LVN_4_260 bus1=LVN_4_b554 bus2=LVN_4_b565 phases=3 linecode=4c_06 length=6.052500 units=m
new line.LVN_4_261 bus1=LVN_4_b557 bus2=LVN_4_b568 phases=3 linecode=35_SA length=10.029700 units=m
new line.LVN_4_262 bus1=LVN_4_b557 bus2=LVN_4_b571 phases=3 linecode=4c_06 length=4.854210 units=m
new line.LVN_4_263 bus1=LVN_4_b565 bus2=LVN_4_b584 phases=3 linecode=4c_06 length=4.742320 units=m
new line.LVN_4_264 bus1=LVN_4_b565 bus2=LVN_4_b587 phases=3 linecode=35_SA length=12.327800 units=m
new line.LVN_4_265 bus1=LVN_4_b566 bus2=LVN_4_b567 phases=3 linecode=4c_06 length=4.131200 units=m
new line.LVN_4_266 bus1=LVN_4_b566 bus2=LVN_4_b592 phases=3 linecode=4c_06 length=10.221000 units=m
new line.LVN_4_267 bus1=LVN_4_b566 bus2=LVN_4_b597 phases=3 linecode=4c_06 length=14.382900 units=m
new line.LVN_4_268 bus1=LVN_4_b567 bus2=LVN_4_b576 phases=3 linecode=2c_022 length=8.690360 units=m
new line.LVN_4_269 bus1=LVN_4_b567 bus2=LVN_4_b583 phases=3 linecode=4c_06 length=0.856761 units=m
new line.LVN_4_270 bus1=LVN_4_b569 bus2=LVN_4_b571 phases=3 linecode=35_SA length=10.347600 units=m
new line.LVN_4_271 bus1=LVN_4_b571 bus2=LVN_4_b577 phases=3 linecode=4c_06 length=10.409200 units=m
new line.LVN_4_272 bus1=LVN_4_b577 bus2=LVN_4_b607 phases=3 linecode=35_SA length=6.104490 units=m
new line.LVN_4_273 bus1=LVN_4_b577 bus2=LVN_4_b612 phases=3 linecode=4c_06 length=6.509560 units=m
new line.LVN_4_274 bus1=LVN_4_b581 bus2=LVN_4_b583 phases=3 linecode=2c_022 length=6.439660 units=m
new line.LVN_4_275 bus1=LVN_4_b583 bus2=LVN_4_b591 phases=3 linecode=2c_022 length=9.346200 units=m
new line.LVN_4_276 bus1=LVN_4_b584 bus2=LVN_4_b598 phases=3 linecode=35_SA length=6.319190 units=m
new line.LVN_4_277 bus1=LVN_4_b584 bus2=LVN_4_b599 phases=3 linecode=4c_06 length=5.206690 units=m
new line.LVN_4_278 bus1=LVN_4_b592 bus2=LVN_4_b596 phases=3 linecode=2c_16 length=4.395530 units=m
new line.LVN_4_279 bus1=LVN_4_b592 bus2=LVN_4_b606 phases=3 linecode=35_SA length=4.659030 units=m
new line.LVN_4_280 bus1=LVN_4_b597 bus2=LVN_4_b617 phases=3 linecode=4c_06 length=12.126600 units=m
new line.LVN_4_281 bus1=LVN_4_b597 bus2=LVN_4_b623 phases=3 linecode=4c_06 length=5.725410 units=m
new line.LVN_4_282 bus1=LVN_4_b597 bus2=LVN_4_b634 phases=3 linecode=4c_06 length=15.998000 units=m
new line.LVN_4_283 bus1=LVN_4_b599 bus2=LVN_4_b601 phases=3 linecode=35_SA length=8.117830 units=m
new line.LVN_4_284 bus1=LVN_4_b599 bus2=LVN_4_b608 phases=3 linecode=2c_022 length=11.677000 units=m
new line.LVN_4_285 bus1=LVN_4_b612 bus2=LVN_4_b618 phases=3 linecode=35_SA length=6.635570 units=m
new line.LVN_4_286 bus1=LVN_4_b612 bus2=LVN_4_b633 phases=3 linecode=4c_06 length=5.445150 units=m
new line.LVN_4_287 bus1=LVN_4_b613 bus2=LVN_4_b617 phases=3 linecode=35_SA length=6.566390 units=m
new line.LVN_4_288 bus1=LVN_4_b617 bus2=LVN_4_b632 phases=3 linecode=35_SA length=7.128950 units=m
new line.LVN_4_289 bus1=LVN_4_b619 bus2=LVN_4_b623 phases=3 linecode=2c_16 length=6.461280 units=m
new line.LVN_4_290 bus1=LVN_4_b623 bus2=LVN_4_b627 phases=3 linecode=2c_16 length=7.939710 units=m
new line.LVN_4_291 bus1=LVN_4_b633 bus2=LVN_4_b635 phases=3 linecode=2c_022 length=6.251450 units=m
new line.LVN_4_292 bus1=LVN_4_b633 bus2=LVN_4_b636 phases=3 linecode=4c_06 length=6.779740 units=m
new line.LVN_4_293 bus1=LVN_4_b634 bus2=LVN_4_b643 phases=3 linecode=4c_06 length=7.775250 units=m
new line.LVN_4_294 bus1=LVN_4_b634 bus2=LVN_4_b647 phases=3 linecode=4c_06 length=13.908100 units=m
new line.LVN_4_295 bus1=LVN_4_b634 bus2=LVN_4_b650 phases=3 linecode=4c_06 length=11.130700 units=m
new line.LVN_4_296 bus1=LVN_4_b636 bus2=LVN_4_b637 phases=3 linecode=2c_022 length=7.061750 units=m
new line.LVN_4_297 bus1=LVN_4_b636 bus2=LVN_4_b638 phases=3 linecode=4c_06 length=5.524230 units=m
new line.LVN_4_298 bus1=LVN_4_b638 bus2=LVN_4_b651 phases=3 linecode=2c_022 length=6.313110 units=m
new line.LVN_4_299 bus1=LVN_4_b638 bus2=LVN_4_b663 phases=3 linecode=4c_06 length=14.450500 units=m
new line.LVN_4_300 bus1=LVN_4_b639 bus2=LVN_4_b643 phases=3 linecode=2c_16 length=4.440030 units=m
new line.LVN_4_301 bus1=LVN_4_b643 bus2=LVN_4_b646 phases=3 linecode=2c_022 length=3.520100 units=m
new line.LVN_4_302 bus1=LVN_4_b647 bus2=LVN_4_b649 phases=3 linecode=2c_022 length=14.890200 units=m
new line.LVN_4_303 bus1=LVN_4_b647 bus2=LVN_4_b672 phases=3 linecode=4c_06 length=7.715360 units=m
new line.LVN_4_304 bus1=LVN_4_b650 bus2=LVN_4_b656 phases=3 linecode=2c_16 length=5.701400 units=m
new line.LVN_4_305 bus1=LVN_4_b650 bus2=LVN_4_b660 phases=3 linecode=2c_022 length=5.049150 units=m
new line.LVN_4_306 bus1=LVN_4_b663 bus2=LVN_4_b666 phases=3 linecode=35_SA length=6.240060 units=m
new line.LVN_4_307 bus1=LVN_4_b663 bus2=LVN_4_b671 phases=3 linecode=35_SA length=8.945220 units=m
new line.LVN_4_308 bus1=LVN_4_b672 bus2=LVN_4_b673 phases=3 linecode=4c_06 length=11.954000 units=m
new line.LVN_4_309 bus1=LVN_4_b672 bus2=LVN_4_b679 phases=3 linecode=4c_06 length=9.954770 units=m
new line.LVN_4_310 bus1=LVN_4_b672 bus2=LVN_4_b683 phases=3 linecode=2c_16 length=12.418900 units=m
new line.LVN_4_311 bus1=LVN_4_b673 bus2=LVN_4_b678 phases=3 linecode=2c_022 length=8.530130 units=m
new line.LVN_4_312 bus1=LVN_4_b673 bus2=LVN_4_b684 phases=3 linecode=35_SA length=4.259600 units=m
new line.LVN_4_313 bus1=LVN_4_b673 bus2=LVN_4_b689 phases=3 linecode=35_SA length=8.523710 units=m
new line.LVN_4_314 bus1=LVN_4_b679 bus2=LVN_4_b690 phases=3 linecode=2c_022 length=9.499570 units=m
new line.LVN_4_315 bus1=LVN_4_b679 bus2=LVN_4_b693 phases=3 linecode=4c_06 length=4.179250 units=m
new line.LVN_4_316 bus1=LVN_4_b693 bus2=LVN_4_b694 phases=3 linecode=35_SA length=11.811300 units=m
new line.LVN_4_317 bus1=LVN_4_b693 bus2=LVN_4_b698 phases=3 linecode=4c_06 length=7.057580 units=m
new line.LVN_4_318 bus1=LVN_4_b698 bus2=LVN_4_b702 phases=3 linecode=2c_022 length=10.489000 units=m
new line.LVN_4_319 bus1=LVN_4_b698 bus2=LVN_4_b703 phases=3 linecode=35_SA length=6.240610 units=m
